examples/powermodels/case14_ieee.json
{
  "name": "case14_ieee",
  "baseMVA": 100.0,
  "per_unit": true,
  "source_type": "matpower",
  "bus": {
    "1": {
      "bus_i": 1,
      "bus_type": 3,
      "vmax": 1.06,
      "vmin": 0.94,
      "va": 0.0,
      "vm": 1.0,
      "base_kv": 1.0,
      "zone": 1,
      "area": 1,
      "index": 1
    },
    "2": {
      "bus_i": 2,
      "bus_type": 2,
      "vmax": 1.06,
      "vmin": 0.94,
      "va": 0.0,
      "vm": 1.0,
      "base_kv": 1.0,
      "zone": 1,
      "area": 1,
      "index": 2
    },
    "3": {
      "bus_i": 3,
      "bus_type": 2,
      "vmax": 1.06,
      "vmin": 0.94,
      "va": 0.0,
      "vm": 1.0,
      "base_kv": 1.0,
      "zone": 1,
      "area": 1,
      "index": 3
    },
    "4": {
      "bus_i": 4,
      "bus_type": 1,
      "vmax": 1.06,
      "vmin": 0.94,
      "va": 0.0,
      "vm": 1.0,
      "base_kv": 1.0,
      "zone": 1,
      "area": 1,
      "index": 4
    },
    "5": {
      "bus_i": 5,
      "bus_type": 1,
      "vmax": 1.06,
      "vmin": 0.94,
      "va": 0.0,
      "vm": 1.0,
      "base_kv": 1.0,
      "zone": 1,
      "area": 1,
      "index": 5
    },
    "6": {
      "bus_i": 6,
      "bus_type": 2,
      "vmax": 1.06,
      "vmin": 0.94,
      "va": 0.0,
      "vm": 1.0,
      "base_kv": 1.0,
      "zone": 1,
      "area": 1,
      "index": 6
    },
    "7": {
      "bus_i": 7,
      "bus_type": 1,
      "vmax": 1.06,
      "vmin": 0.94,
      "va": 0.0,
      "vm": 1.0,
      "base_kv": 1.0,
      "zone": 1,
      "area": 1,
      "index": 7
    },
    "8": {
      "bus_i": 8,
      "bus_type": 2,
      "vmax": 1.06,
      "vmin": 0.94,
      "va": 0.0,
      "vm": 1.0,
      "base_kv": 1.0,
      "zone": 1,
      "area": 1,
      "index": 8
    },
    "9": {
      "bus_i": 9,
      "bus_type": 1,
      "vmax": 1.06,
      "vmin": 0.94,
      "va": 0.0,
      "vm": 1.0,
      "base_kv": 1.0,
      "zone": 1,
      "area": 1,
      "index": 9
    },
    "10": {
      "bus_i": 10,
      "bus_type": 1,
      "vmax": 1.06,
      "vmin": 0.94,
      "va": 0.0,
      "vm": 1.0,
      "base_kv": 1.0,
      "zone": 1,
      "area": 1,
      "index": 10
    },
    "11": {
      "bus_i": 11,
      "bus_type": 1,
      "vmax": 1.06,
      "vmin": 0.94,
      "va": 0.0,
      "vm": 1.0,
      "base_kv": 1.0,
      "zone": 1,
      "area": 1,
      "index": 11
    },
    "12": {
      "bus_i": 12,
      "bus_type": 1,
      "vmax": 1.06,
      "vmin": 0.94,
      "va": 0.0,
      "vm": 1.0,
      "base_kv": 1.0,
      "zone": 1,
      "area": 1,
      "index": 12
    },
    "13": {
      "bus_i": 13,
      "bus_type": 1,
      "vmax": 1.06,
      "vmin": 0.94,
      "va": 0.0,
      "vm": 1.0,
      "base_kv": 1.0,
      "zone": 1,
      "area": 1,
      "index": 13
    },
    "14": {
      "bus_i": 14,
      "bus_type": 1,
      "vmax": 1.06,
      "vmin": 0.94,
      "va": 0.0,
      "vm": 1.0,
      "base_kv": 1.0,
      "zone": 1,
      "area": 1,
      "index": 14
    }
  },
  "load": {
    "1": {
      "load_bus": 2,
      "pd": 0.217,
      "qd": 0.127,
      "status": 1,
      "index": 1,
      "source_id": [
        "bus",
        2
      ]
    },
    "2": {
      "load_bus": 3,
      "pd": 0.9420000000000001,
      "qd": 0.19,
      "status": 1,
      "index": 2,
      "source_id": [
        "bus",
        3
      ]
    },
    "3": {
      "load_bus": 4,
      "pd": 0.478,
      "qd": -0.039,
      "status": 1,
      "index": 3,
      "source_id": [
        "bus",
        4
      ]
    },
    "4": {
      "load_bus": 5,
      "pd": 0.076,
      "qd": 0.016,
      "status": 1,
      "index": 4,
      "source_id": [
        "bus",
        5
      ]
    },
    "5": {
      "load_bus": 6,
      "pd": 0.11199999999999999,
      "qd": 0.075,
      "status": 1,
      "index": 5,
      "source_id": [
        "bus",
        6
      ]
    },
    "6": {
      "load_bus": 9,
      "pd": 0.295,
      "qd": 0.166,
      "status": 1,
      "index": 6,
      "source_id": [
        "bus",
        9
      ]
    },
    "7": {
      "load_bus": 10,
      "pd": 0.09,
      "qd": 0.057999999999999996,
      "status": 1,
      "index": 7,
      "source_id": [
        "bus",
        10
      ]
    },
    "8": {
      "load_bus": 11,
      "pd": 0.035,
      "qd": 0.018000000000000002,
      "status": 1,
      "index": 8,
      "source_id": [
        "bus",
        11
      ]
    },
    "9": {
      "load_bus": 12,
      "pd": 0.061,
      "qd": 0.016,
      "status": 1,
      "index": 9,
      "source_id": [
        "bus",
        12
      ]
    },
    "10": {
      "load_bus": 13,
      "pd": 0.135,
      "qd": 0.057999999999999996,
      "status": 1,
      "index": 10,
      "source_id": [
        "bus",
        13
      ]
    },
    "11": {
      "load_bus": 14,
      "pd": 0.149,
      "qd": 0.05,
      "status": 1,
      "index": 11,
      "source_id": [
        "bus",
        14
      ]
    }
  },
  "gen": {
    "1": {
      "gen_bus": 1,
      "pg": 1.7,
      "qg": 0.05,
      "qmax": 0.1,
      "qmin": 0.0,
      "vg": 1.0,
      "mbase": 100.0,
      "gen_status": 1,
      "pmax": 3.4,
      "pmin": 0.0,
      "model": 2,
      "ncost": 3,
      "cost": [
        0.0,
        792.0951,
        0.0
      ],
      "startup": 0.0,
      "shutdown": 0.0,
      "index": 1
    },
    "2": {
      "gen_bus": 2,
      "pg": 0.295,
      "qg": 0.0,
      "qmax": 0.3,
      "qmin": -0.3,
      "vg": 1.0,
      "mbase": 100.0,
      "gen_status": 1,
      "pmax": 0.59,
      "pmin": 0.0,
      "model": 2,
      "ncost": 3,
      "cost": [
        0.0,
        2326.9494,
        0.0
      ],
      "startup": 0.0,
      "shutdown": 0.0,
      "index": 2
    },
    "3": {
      "gen_bus": 3,
      "pg": 0.0,
      "qg": 0.2,
      "qmax": 0.4,
      "qmin": 0.0,
      "vg": 1.0,
      "mbase": 100.0,
      "gen_status": 1,
      "pmax": 0.0,
      "pmin": 0.0,
      "model": 2,
      "ncost": 3,
      "cost": [
        0.0,
        0.0,
        0.0
      ],
      "startup": 0.0,
      "shutdown": 0.0,
      "index": 3
    },
    "4": {
      "gen_bus": 6,
      "pg": 0.0,
      "qg": 0.09,
      "qmax": 0.24,
      "qmin": -0.06,
      "vg": 1.0,
      "mbase": 100.0,
      "gen_status": 1,
      "pmax": 0.0,
      "pmin": 0.0,
      "model": 2,
      "ncost": 3,
      "cost": [
        0.0,
        0.0,
        0.0
      ],
      "startup": 0.0,
      "shutdown": 0.0,
      "index": 4
    },
    "5": {
      "gen_bus": 8,
      "pg": 0.0,
      "qg": 0.09,
      "qmax": 0.24,
      "qmin": -0.06,
      "vg": 1.0,
      "mbase": 100.0,
      "gen_status": 1,
      "pmax": 0.0,
      "pmin": 0.0,
      "model": 2,
      "ncost": 3,
      "cost": [
        0.0,
        0.0,
        0.0
      ],
      "startup": 0.0,
      "shutdown": 0.0,
      "index": 5
    }
  },
  "branch": {
    "1": {
      "f_bus": 1,
      "t_bus": 2,
      "br_r": 0.01938,
      "br_x": 0.05917,
      "b_fr": 0.0264,
      "b_to": 0.0264,
      "g_fr": 0.0,
      "g_to": 0.0,
      "rate_a": 4.72,
      "rate_b": 4.72,
      "rate_c": 4.72,
      "tap": 1.0,
      "shift": 0.0,
      "br_status": 1,
      "angmin": -0.5235987755982984,
      "angmax": 0.5235987755982984,
      "transformer": false,
      "index": 1
    },
    "2": {
      "f_bus": 1,
      "t_bus": 5,
      "br_r": 0.05403,
      "br_x": 0.22304,
      "b_fr": 0.0246,
      "b_to": 0.0246,
      "g_fr": 0.0,
      "g_to": 0.0,
      "rate_a": 1.28,
      "rate_b": 1.28,
      "rate_c": 1.28,
      "tap": 1.0,
      "shift": 0.0,
      "br_status": 1,
      "angmin": -0.5235987755982984,
      "angmax": 0.5235987755982984,
      "transformer": false,
      "index": 2
    },
    "3": {
      "f_bus": 2,
      "t_bus": 3,
      "br_r": 0.04699,
      "br_x": 0.19797,
      "b_fr": 0.0219,
      "b_to": 0.0219,
      "g_fr": 0.0,
      "g_to": 0.0,
      "rate_a": 1.45,
      "rate_b": 1.45,
      "rate_c": 1.45,
      "tap": 1.0,
      "shift": 0.0,
      "br_status": 1,
      "angmin": -0.5235987755982984,
      "angmax": 0.5235987755982984,
      "transformer": false,
      "index": 3
    },
    "4": {
      "f_bus": 2,
      "t_bus": 4,
      "br_r": 0.05811,
      "br_x": 0.17632,
      "b_fr": 0.017,
      "b_to": 0.017,
      "g_fr": 0.0,
      "g_to": 0.0,
      "rate_a": 1.58,
      "rate_b": 1.58,
      "rate_c": 1.58,
      "tap": 1.0,
      "shift": 0.0,
      "br_status": 1,
      "angmin": -0.5235987755982984,
      "angmax": 0.5235987755982984,
      "transformer": false,
      "index": 4
    },
    "5": {
      "f_bus": 2,
      "t_bus": 5,
      "br_r": 0.05695,
      "br_x": 0.17388,
      "b_fr": 0.0173,
      "b_to": 0.0173,
      "g_fr": 0.0,
      "g_to": 0.0,
      "rate_a": 1.61,
      "rate_b": 1.61,
      "rate_c": 1.61,
      "tap": 1.0,
      "shift": 0.0,
      "br_status": 1,
      "angmin": -0.5235987755982984,
      "angmax": 0.5235987755982984,
      "transformer": false,
      "index": 5
    },
    "6": {
      "f_bus": 3,
      "t_bus": 4,
      "br_r": 0.06701,
      "br_x": 0.17103,
      "b_fr": 0.0064,
      "b_to": 0.0064,
      "g_fr": 0.0,
      "g_to": 0.0,
      "rate_a": 1.6,
      "rate_b": 1.6,
      "rate_c": 1.6,
      "tap": 1.0,
      "shift": 0.0,
      "br_status": 1,
      "angmin": -0.5235987755982984,
      "angmax": 0.5235987755982984,
      "transformer": false,
      "index": 6
    },
    "7": {
      "f_bus": 4,
      "t_bus": 5,
      "br_r": 0.01335,
      "br_x": 0.04211,
      "b_fr": 0.0,
      "b_to": 0.0,
      "g_fr": 0.0,
      "g_to": 0.0,
      "rate_a": 6.64,
      "rate_b": 6.64,
      "rate_c": 6.64,
      "tap": 1.0,
      "shift": 0.0,
      "br_status": 1,
      "angmin": -0.5235987755982984,
      "angmax": 0.5235987755982984,
      "transformer": false,
      "index": 7
    },
    "8": {
      "f_bus": 4,
      "t_bus": 7,
      "br_r": 0.0,
      "br_x": 0.20912,
      "b_fr": 0.0,
      "b_to": 0.0,
      "g_fr": 0.0,
      "g_to": 0.0,
      "rate_a": 1.41,
      "rate_b": 1.41,
      "rate_c": 1.41,
      "tap": 0.978,
      "shift": 0.0,
      "br_status": 1,
      "angmin": -0.5235987755982984,
      "angmax": 0.5235987755982984,
      "transformer": true,
      "index": 8
    },
    "9": {
      "f_bus": 4,
      "t_bus": 9,
      "br_r": 0.0,
      "br_x": 0.55618,
      "b_fr": 0.0,
      "b_to": 0.0,
      "g_fr": 0.0,
      "g_to": 0.0,
      "rate_a": 0.53,
      "rate_b": 0.53,
      "rate_c": 0.53,
      "tap": 0.969,
      "shift": 0.0,
      "br_status": 1,
      "angmin": -0.5235987755982984,
      "angmax": 0.5235987755982984,
      "transformer": true,
      "index": 9
    },
    "10": {
      "f_bus": 5,
      "t_bus": 6,
      "br_r": 0.0,
      "br_x": 0.25202,
      "b_fr": 0.0,
      "b_to": 0.0,
      "g_fr": 0.0,
      "g_to": 0.0,
      "rate_a": 1.17,
      "rate_b": 1.17,
      "rate_c": 1.17,
      "tap": 0.932,
      "shift": 0.0,
      "br_status": 1,
      "angmin": -0.5235987755982984,
      "angmax": 0.5235987755982984,
      "transformer": true,
      "index": 10
    },
    "11": {
      "f_bus": 6,
      "t_bus": 11,
      "br_r": 0.09498,
      "br_x": 0.1989,
      "b_fr": 0.0,
      "b_to": 0.0,
      "g_fr": 0.0,
      "g_to": 0.0,
      "rate_a": 1.34,
      "rate_b": 1.34,
      "rate_c": 1.34,
      "tap": 1.0,
      "shift": 0.0,
      "br_status": 1,
      "angmin": -0.5235987755982984,
      "angmax": 0.5235987755982984,
      "transformer": false,
      "index": 11
    },
    "12": {
      "f_bus": 6,
      "t_bus": 12,
      "br_r": 0.12291,
      "br_x": 0.25581,
      "b_fr": 0.0,
      "b_to": 0.0,
      "g_fr": 0.0,
      "g_to": 0.0,
      "rate_a": 1.04,
      "rate_b": 1.04,
      "rate_c": 1.04,
      "tap": 1.0,
      "shift": 0.0,
      "br_status": 1,
      "angmin": -0.5235987755982984,
      "angmax": 0.5235987755982984,
      "transformer": false,
      "index": 12
    },
    "13": {
      "f_bus": 6,
      "t_bus": 13,
      "br_r": 0.06615,
      "br_x": 0.13027,
      "b_fr": 0.0,
      "b_to": 0.0,
      "g_fr": 0.0,
      "g_to": 0.0,
      "rate_a": 2.01,
      "rate_b": 2.01,
      "rate_c": 2.01,
      "tap": 1.0,
      "shift": 0.0,
      "br_status": 1,
      "angmin": -0.5235987755982984,
      "angmax": 0.5235987755982984,
      "transformer": false,
      "index": 13
    },
    "14": {
      "f_bus": 7,
      "t_bus": 8,
      "br_r": 0.0,
      "br_x": 0.17615,
      "b_fr": 0.0,
      "b_to": 0.0,
      "g_fr": 0.0,
      "g_to": 0.0,
      "rate_a": 1.67,
      "rate_b": 1.67,
      "rate_c": 1.67,
      "tap": 1.0,
      "shift": 0.0,
      "br_status": 1,
      "angmin": -0.5235987755982984,
      "angmax": 0.5235987755982984,
      "transformer": false,
      "index": 14
    },
    "15": {
      "f_bus": 7,
      "t_bus": 9,
      "br_r": 0.0,
      "br_x": 0.11001,
      "b_fr": 0.0,
      "b_to": 0.0,
      "g_fr": 0.0,
      "g_to": 0.0,
      "rate_a": 2.67,
      "rate_b": 2.67,
      "rate_c": 2.67,
      "tap": 1.0,
      "shift": 0.0,
      "br_status": 1,
      "angmin": -0.5235987755982984,
      "angmax": 0.5235987755982984,
      "transformer": false,
      "index": 15
    },
    "16": {
      "f_bus": 9,
      "t_bus": 10,
      "br_r": 0.03181,
      "br_x": 0.0845,
      "b_fr": 0.0,
      "b_to": 0.0,
      "g_fr": 0.0,
      "g_to": 0.0,
      "rate_a": 3.25,
      "rate_b": 3.25,
      "rate_c": 3.25,
      "tap": 1.0,
      "shift": 0.0,
      "br_status": 1,
      "angmin": -0.5235987755982984,
      "angmax": 0.5235987755982984,
      "transformer": false,
      "index": 16
    },
    "17": {
      "f_bus": 9,
      "t_bus": 14,
      "br_r": 0.12711,
      "br_x": 0.27038,
      "b_fr": 0.0,
      "b_to": 0.0,
      "g_fr": 0.0,
      "g_to": 0.0,
      "rate_a": 0.99,
      "rate_b": 0.99,
      "rate_c": 0.99,
      "tap": 1.0,
      "shift": 0.0,
      "br_status": 1,
      "angmin": -0.5235987755982984,
      "angmax": 0.5235987755982984,
      "transformer": false,
      "index": 17
    },
    "18": {
      "f_bus": 10,
      "t_bus": 11,
      "br_r": 0.08205,
      "br_x": 0.19207,
      "b_fr": 0.0,
      "b_to": 0.0,
      "g_fr": 0.0,
      "g_to": 0.0,
      "rate_a": 1.41,
      "rate_b": 1.41,
      "rate_c": 1.41,
      "tap": 1.0,
      "shift": 0.0,
      "br_status": 1,
      "angmin": -0.5235987755982984,
      "angmax": 0.5235987755982984,
      "transformer": false,
      "index": 18
    },
    "19": {
      "f_bus": 12,
      "t_bus": 13,
      "br_r": 0.22092,
      "br_x": 0.19988,
      "b_fr": 0.0,
      "b_to": 0.0,
      "g_fr": 0.0,
      "g_to": 0.0,
      "rate_a": 0.99,
      "rate_b": 0.99,
      "rate_c": 0.99,
      "tap": 1.0,
      "shift": 0.0,
      "br_status": 1,
      "angmin": -0.5235987755982984,
      "angmax": 0.5235987755982984,
      "transformer": false,
      "index": 19
    },
    "20": {
      "f_bus": 13,
      "t_bus": 14,
      "br_r": 0.17093,
      "br_x": 0.34802,
      "b_fr": 0.0,
      "b_to": 0.0,
      "g_fr": 0.0,
      "g_to": 0.0,
      "rate_a": 0.76,
      "rate_b": 0.76,
      "rate_c": 0.76,
      "tap": 1.0,
      "shift": 0.0,
      "br_status": 1,
      "angmin": -0.5235987755982984,
      "angmax": 0.5235987755982984,
      "transformer": false,
      "index": 20
    }
  },
  "shunt": {
    "1": {
      "shunt_bus": 9,
      "gs": 0.0,
      "bs": 0.19,
      "status": 1,
      "index": 1
    }
  },
  "storage": {},
  "dcline": {},
  "switch": {}
}